Version 4
SHEET 1 892 680
WIRE 400 -112 240 -112
WIRE 608 -112 400 -112
WIRE 784 -112 608 -112
WIRE 336 -48 256 -48
WIRE 720 -48 688 -48
WIRE 400 48 400 16
WIRE 576 48 400 48
WIRE 400 64 400 48
WIRE 576 64 576 48
WIRE 256 128 256 -48
WIRE 336 128 256 128
WIRE 512 128 464 128
WIRE 784 192 784 16
WIRE 800 192 784 192
WIRE 256 208 256 128
WIRE 256 208 192 208
WIRE 400 208 400 192
WIRE 464 208 464 128
WIRE 464 208 400 208
WIRE 576 208 576 192
WIRE 640 208 576 208
WIRE 400 240 400 208
WIRE 608 240 608 -112
WIRE 256 304 256 208
WIRE 336 304 256 304
WIRE 464 304 464 208
WIRE 544 304 464 304
WIRE 400 384 400 368
WIRE 608 384 608 368
WIRE 608 384 400 384
WIRE 400 400 400 384
WIRE 784 400 784 192
WIRE 256 464 256 304
WIRE 336 464 256 464
WIRE 464 464 464 304
WIRE 592 464 464 464
WIRE 688 464 688 -48
WIRE 688 464 592 464
WIRE 720 464 688 464
WIRE 400 576 400 528
WIRE 400 576 240 576
WIRE 640 576 640 208
WIRE 640 576 400 576
WIRE 784 576 784 528
WIRE 784 576 640 576
FLAG 592 464 schmitt
FLAG 800 192 OUT
IOPIN 800 192 Out
FLAG 192 208 IN
IOPIN 192 208 In
SYMBOL PK_schematic_symbols/nmos_ 336 464 R0
SYMATTR InstName M1
SYMBOL PK_schematic_symbols/nmos_ 336 304 R0
SYMATTR InstName M2
SYMBOL PK_schematic_symbols/nmos_ 544 304 R0
SYMATTR InstName M3
SYMBOL PK_schematic_symbols/pmos_ 336 128 R0
SYMATTR InstName M4
SYMBOL PK_schematic_symbols/pmos_ 336 -48 R0
SYMATTR InstName M5
SYMBOL PK_schematic_symbols/pmos_ 512 128 R0
SYMATTR InstName M6
SYMBOL PK_schematic_symbols/pmos_ 720 -48 R0
SYMATTR InstName M7
SYMBOL PK_schematic_symbols/nmos_ 720 464 R0
SYMATTR InstName M8
